*Heading
** Job name: Four-Point-test Model name: Model-1
** Generated by: Abaqus/CAE 2021
*Preprint, echo=NO, model=NO, history=NO, contact=NO
**
** PARTS
**
*Part, name=Concrete-beam
*Node
      1,         100.,        -150.,         100.
      2,         100.,         150.,         100.
      3,         100.,         150.,         575.
      4,         100.,        -150.,         575.
      5,        -100.,         150.,         100.
      6,        -100.,         150.,         575.
      7,        -100.,        -150.,         575.
      8,        -100.,        -150.,         100.
      9,         100.,        -150.,           0.
     10,         100.,         150.,           0.
     11,        -100.,        -150.,           0.
     12,        -100.,         150.,           0.
     13,        -100.,         150.,         675.
     14,        -100.,        -150.,         675.
     15,        -100.,        -150.,        1325.
     16,        -100.,         150.,        1325.
     17,         100.,        -150.,         675.
     18,         100.,        -150.,        1325.
     19,         100.,         150.,        1325.
     20,         100.,         150.,         675.
** ... 1450 like lines cut
*Element, type=C3D8R
  1,   94,  441,  961,  387,    1,   33,  297,   60
  2,  441,  442,  962,  961,   33,   34,  298,  297
  3,  442,  443,  963,  962,   34,   35,  299,  298
  4,  443,  444,  964,  963,   35,   36,  300,  299
  5,  444,  445,  965,  964,   36,   37,  301,  300
  6,  445,   98,  414,  965,   37,    2,   38,  301
  7,  387,  961,  966,  388,   60,  297,  302,   59
  8,  961,  962,  967,  966,  297,  298,  303,  302
  9,  962,  963,  968,  967,  298,  299,  304,  303
 10,  963,  964,  969,  968,  299,  300,  305,  304
 11,  964,  965,  970,  969,  300,  301,  306,  305
 12,  965,  414,  415,  970,  301,   38,   39,  306
 13,  388,  966,  971,  389,   59,  302,  307,   58
 14,  966,  967,  972,  971,  302,  303,  308,  307
 15,  967,  968,  973,  972,  303,  304,  309,  308
 16,  968,  969,  974,  973,  304,  305,  310,  309
 17,  969,  970,  975,  974,  305,  306,  311,  310
 18,  970,  415,  416,  975,  306,   39,   40,  311
 19,  389,  971,  976,  390,   58,  307,  312,   57
 20,  971,  972,  977,  976,  307,  308,  313,  312
** ... 964 like lines cut
*Nset, nset=_PickedSet2, internal, generate
    1,  1470,     1
*Elset, elset=_PickedSet2, internal, generate
   1,  984,    1
** Section: Concrete
*Solid Section, elset=_PickedSet2, material=Concrete_CDP
,
*End Part
**  
*Part, name=Rebars
*Node
      1,       -1000.,           0.,           0.
      2,        -950.,           0.,           0.
      3,        -900.,           0.,           0.
      4,        -850.,           0.,           0.
      5,        -800.,           0.,           0.
      6,        -750.,           0.,           0.
      7,        -700.,           0.,           0.
      8,        -650.,           0.,           0.
      9,        -600.,           0.,           0.
     10,        -550.,           0.,           0.
     11,        -500.,           0.,           0.
     12,        -450.,           0.,           0.
     13,        -400.,           0.,           0.
     14,        -350.,           0.,           0.
     15,        -300.,           0.,           0.
     16,        -250.,           0.,           0.
     17,        -200.,           0.,           0.
     18,        -150.,           0.,           0.
     19,        -100.,           0.,           0.
     20,         -50.,           0.,           0.
** ... 21 like lines cut
*Element, type=B31
 1,  1,  2
 2,  2,  3
 3,  3,  4
 4,  4,  5
 5,  5,  6
 6,  6,  7
 7,  7,  8
 8,  8,  9
 9,  9, 10
10, 10, 11
11, 11, 12
12, 12, 13
13, 13, 14
14, 14, 15
15, 15, 16
16, 16, 17
17, 17, 18
18, 18, 19
19, 19, 20
20, 20, 21
** ... 20 like lines cut
*Nset, nset=_PickedSet5, internal, generate
  1,  41,   1
*Elset, elset=_PickedSet5, internal, generate
  1,  40,   1
** Section: Rebar  Profile: Rebar16
*Beam Section, elset=_PickedSet5, material=Q235, temperature=GRADIENTS, section=CIRC
8.
0.,0.,-1.
*End Part
**  
*Part, name=Stirrupid
*Node
      1,         -80.,        -130.,           0.
      2,          80.,        -130.,           0.
      3,          80.,         130.,           0.
      4,         -80.,         130.,           0.
      5,    26.666666,        -130.,           0.
      6,   -26.666666,        -130.,           0.
      7,          80.,          78.,           0.
      8,          80.,          26.,           0.
      9,          80.,         -26.,           0.
     10,          80.,         -78.,           0.
     11,   -26.666666,         130.,           0.
     12,    26.666666,         130.,           0.
     13,         -80.,         -78.,           0.
     14,         -80.,         -26.,           0.
     15,         -80.,          26.,           0.
     16,         -80.,          78.,           0.
*Element, type=B31
1, 2, 5
2, 5, 6
3, 6, 1
4,  3,  7
5,  7,  8
6,  8,  9
7,  9, 10
8, 10,  2
 9,  4, 11
10, 11, 12
11, 12,  3
12,  1, 13
13, 13, 14
14, 14, 15
15, 15, 16
16, 16,  4
*Nset, nset=_PickedSet5, internal, generate
  1,  16,   1
*Elset, elset=_PickedSet5, internal, generate
  1,  16,   1
** Section: Stirrup  Profile: Stirrups
*Beam Section, elset=_PickedSet5, material=Q235, temperature=GRADIENTS, section=CIRC
3.
0.,0.,-1.
*End Part
**  
*Part, name=Support
*Node
      1,         100.,          50.,         200.
      2,         100.,   33.3333321,         200.
      3,         100.,    16.666666,         200.
      4,         100.,           0.,         200.
      5,         100.,          50.,         180.
      6,         100.,   33.3333321,         180.
      7,         100.,    16.666666,         180.
      8,         100.,           0.,         180.
      9,         100.,          50.,         160.
     10,         100.,   33.3333321,         160.
     11,         100.,    16.666666,         160.
     12,         100.,           0.,         160.
     13,         100.,          50.,         140.
     14,         100.,   33.3333321,         140.
     15,         100.,    16.666666,         140.
     16,         100.,           0.,         140.
     17,         100.,          50.,         120.
     18,         100.,   33.3333321,         120.
     19,         100.,    16.666666,         120.
     20,         100.,           0.,         120.
** ... 244 like lines cut
*Element, type=C3D8R
  1,  45,  46,  50,  49,   1,   2,   6,   5
  2,  46,  47,  51,  50,   2,   3,   7,   6
  3,  47,  48,  52,  51,   3,   4,   8,   7
  4,  49,  50,  54,  53,   5,   6,  10,   9
  5,  50,  51,  55,  54,   6,   7,  11,  10
  6,  51,  52,  56,  55,   7,   8,  12,  11
  7,  53,  54,  58,  57,   9,  10,  14,  13
  8,  54,  55,  59,  58,  10,  11,  15,  14
  9,  55,  56,  60,  59,  11,  12,  16,  15
 10,  57,  58,  62,  61,  13,  14,  18,  17
 11,  58,  59,  63,  62,  14,  15,  19,  18
 12,  59,  60,  64,  63,  15,  16,  20,  19
 13,  61,  62,  66,  65,  17,  18,  22,  21
 14,  62,  63,  67,  66,  18,  19,  23,  22
 15,  63,  64,  68,  67,  19,  20,  24,  23
 16,  65,  66,  70,  69,  21,  22,  26,  25
 17,  66,  67,  71,  70,  22,  23,  27,  26
 18,  67,  68,  72,  71,  23,  24,  28,  27
 19,  69,  70,  74,  73,  25,  26,  30,  29
 20,  70,  71,  75,  74,  26,  27,  31,  30
** ... 130 like lines cut
*Nset, nset=_PickedSet2, internal, generate
   1,  264,    1
*Elset, elset=_PickedSet2, internal, generate
   1,  150,    1
** Section: support
*Solid Section, elset=_PickedSet2, material=Elastic
,
*End Part
**  
**
** ASSEMBLY
**
*Assembly, name=Assembly
**  
*Instance, name=Concrete-beam-1, part=Concrete-beam
          0.,         150.,         100.
          0.,         150.,         100.,           0., 151.000000012688,         100., 89.9999992730282
*End Instance
**  
*Instance, name=Stirrupid-1, part=Stirrupid
         20.,         150.,         100.
         20.,         150.,         100.,          20., 151.000000012688,         100., 89.9999992730282
*End Instance
**  
*Instance, name=Stirrupid-1-lin-2-1, part=Stirrupid
        150.,         150.,         100.
        150.,         150.,         100.,         150., 151.000000012688,         100., 89.9999992730282
*End Instance
**  
*Instance, name=Stirrupid-1-lin-3-1, part=Stirrupid
        280.,         150.,         100.
        280.,         150.,         100.,         280., 151.000000012688,         100., 89.9999992730282
*End Instance
**  
*Instance, name=Stirrupid-1-lin-4-1, part=Stirrupid
        410.,         150.,         100.
        410.,         150.,         100.,         410., 151.000000012688,         100., 89.9999992730282
*End Instance
**  
*Instance, name=Stirrupid-1-lin-5-1, part=Stirrupid
        540.,         150.,         100.
        540.,         150.,         100.,         540., 151.000000012688,         100., 89.9999992730282
*End Instance
**  
*Instance, name=Stirrupid-1-lin-6-1, part=Stirrupid
        670.,         150.,         100.
        670.,         150.,         100.,         670., 151.000000012688,         100., 89.9999992730282
*End Instance
**  
*Instance, name=Stirrupid-1-lin-7-1, part=Stirrupid
        800.,         150.,         100.
        800.,         150.,         100.,         800., 151.000000012688,         100., 89.9999992730282
*End Instance
**  
*Instance, name=Stirrupid-1-lin-8-1, part=Stirrupid
        930.,         150.,         100.
        930.,         150.,         100.,         930., 151.000000012688,         100., 89.9999992730282
*End Instance
**  
*Instance, name=Stirrupid-1-lin-9-1, part=Stirrupid
       1060.,         150.,         100.
       1060.,         150.,         100.,        1060., 151.000000012688,         100., 89.9999992730282
*End Instance
**  
*Instance, name=Stirrupid-1-lin-10-1, part=Stirrupid
       1190.,         150.,         100.
       1190.,         150.,         100.,        1190., 151.000000012688,         100., 89.9999992730282
*End Instance
**  
*Instance, name=Stirrupid-1-lin-11-1, part=Stirrupid
       1320.,         150.,         100.
       1320.,         150.,         100.,        1320., 151.000000012688,         100., 89.9999992730282
*End Instance
**  
*Instance, name=Stirrupid-1-lin-12-1, part=Stirrupid
       1450.,         150.,         100.
       1450.,         150.,         100.,        1450., 151.000000012688,         100., 89.9999992730282
*End Instance
**  
*Instance, name=Stirrupid-1-lin-13-1, part=Stirrupid
       1580.,         150.,         100.
       1580.,         150.,         100.,        1580., 151.000000012688,         100., 89.9999992730282
*End Instance
**  
*Instance, name=Stirrupid-1-lin-14-1, part=Stirrupid
       1710.,         150.,         100.
       1710.,         150.,         100.,        1710., 151.000000012688,         100., 89.9999992730282
*End Instance
**  
*Instance, name=Stirrupid-1-lin-15-1, part=Stirrupid
       1840.,         150.,         100.
       1840.,         150.,         100.,        1840., 151.000000012688,         100., 89.9999992730282
*End Instance
**  
*Instance, name=Stirrupid-1-lin-16-1, part=Stirrupid
       1970.,         150.,         100.
       1970.,         150.,         100.,        1970., 151.000000012688,         100., 89.9999992730282
*End Instance
**  
*Instance, name=Rebars-1, part=Rebars
       1000.,          20., 20.0000000000001
       1000.,          20., 20.0000000000001,        1000.,          21., 20.0000000000001,         180.
*End Instance
**  
*Instance, name=Rebars-1-lin-1-2, part=Rebars
       1000.,         280., 20.0000000000001
       1000.,         280., 20.0000000000001,        1000.,         281., 20.0000000000001,         180.
*End Instance
**  
*Instance, name=Rebars-1-lin-2-1, part=Rebars
       1000.,          20.,         180.
       1000.,          20.,         180.,        1000.,          21.,         180.,         180.
*End Instance
**  
*Instance, name=Rebars-1-lin-2-2, part=Rebars
       1000.,         280.,         180.
       1000.,         280.,         180.,        1000.,         281.,         180.,         180.
*End Instance
**  
*Instance, name=Support-1, part=Support
       1900.,         -50.,           0.
*End Instance
**  
*Instance, name=Support-1-lin-2-1, part=Support
       1325.,         300.,           0.
*End Instance
**  
*Instance, name=Support-1-lin-3-1, part=Support
        575.,         300.,           0.
*End Instance
**  
*Instance, name=Support-1-lin-4-1, part=Support
          0.,         -50.,           0.
*End Instance
**  
*Node
      1,         625.,         350.,         100.
*Node
      2,        1375.,         350.,         100.
*Nset, nset=D/S
 1,
*Nset, nset=d/s2
 2,
*Nset, nset=_PickedSet60, internal, instance=Stirrupid-1, generate
  1,  16,   1
*Nset, nset=_PickedSet60, internal, instance=Stirrupid-1-lin-2-1, generate
  1,  16,   1
*Nset, nset=_PickedSet60, internal, instance=Stirrupid-1-lin-3-1, generate
  1,  16,   1
*Nset, nset=_PickedSet60, internal, instance=Stirrupid-1-lin-7-1, generate
  1,  16,   1
*Nset, nset=_PickedSet60, internal, instance=Stirrupid-1-lin-15-1, generate
  1,  16,   1
*Nset, nset=_PickedSet60, internal, instance=Stirrupid-1-lin-11-1, generate
  1,  16,   1
*Nset, nset=_PickedSet60, internal, instance=Rebars-1-lin-2-1, generate
  1,  41,   1
*Nset, nset=_PickedSet60, internal, instance=Stirrupid-1-lin-5-1, generate
  1,  16,   1
*Nset, nset=_PickedSet60, internal, instance=Stirrupid-1-lin-9-1, generate
  1,  16,   1
*Nset, nset=_PickedSet60, internal, instance=Rebars-1, generate
  1,  41,   1
*Nset, nset=_PickedSet60, internal, instance=Stirrupid-1-lin-13-1, generate
  1,  16,   1
*Nset, nset=_PickedSet60, internal, instance=Stirrupid-1-lin-4-1, generate
  1,  16,   1
*Nset, nset=_PickedSet60, internal, instance=Stirrupid-1-lin-8-1, generate
  1,  16,   1
*Nset, nset=_PickedSet60, internal, instance=Stirrupid-1-lin-16-1, generate
  1,  16,   1
*Nset, nset=_PickedSet60, internal, instance=Stirrupid-1-lin-12-1, generate
  1,  16,   1
*Nset, nset=_PickedSet60, internal, instance=Rebars-1-lin-2-2, generate
  1,  41,   1
*Nset, nset=_PickedSet60, internal, instance=Stirrupid-1-lin-6-1, generate
  1,  16,   1
*Nset, nset=_PickedSet60, internal, instance=Stirrupid-1-lin-10-1, generate
  1,  16,   1
*Nset, nset=_PickedSet60, internal, instance=Rebars-1-lin-1-2, generate
  1,  41,   1
*Nset, nset=_PickedSet60, internal, instance=Stirrupid-1-lin-14-1, generate
  1,  16,   1
*Elset, elset=_PickedSet60, internal, instance=Stirrupid-1, generate
  1,  16,   1
*Elset, elset=_PickedSet60, internal, instance=Stirrupid-1-lin-2-1, generate
  1,  16,   1
*Elset, elset=_PickedSet60, internal, instance=Stirrupid-1-lin-3-1, generate
  1,  16,   1
*Elset, elset=_PickedSet60, internal, instance=Stirrupid-1-lin-7-1, generate
  1,  16,   1
*Elset, elset=_PickedSet60, internal, instance=Stirrupid-1-lin-15-1, generate
  1,  16,   1
*Elset, elset=_PickedSet60, internal, instance=Stirrupid-1-lin-11-1, generate
  1,  16,   1
*Elset, elset=_PickedSet60, internal, instance=Rebars-1-lin-2-1, generate
  1,  40,   1
*Elset, elset=_PickedSet60, internal, instance=Stirrupid-1-lin-5-1, generate
  1,  16,   1
*Elset, elset=_PickedSet60, internal, instance=Stirrupid-1-lin-9-1, generate
  1,  16,   1
*Elset, elset=_PickedSet60, internal, instance=Rebars-1, generate
  1,  40,   1
*Elset, elset=_PickedSet60, internal, instance=Stirrupid-1-lin-13-1, generate
  1,  16,   1
*Elset, elset=_PickedSet60, internal, instance=Stirrupid-1-lin-4-1, generate
  1,  16,   1
*Elset, elset=_PickedSet60, internal, instance=Stirrupid-1-lin-8-1, generate
  1,  16,   1
*Elset, elset=_PickedSet60, internal, instance=Stirrupid-1-lin-16-1, generate
  1,  16,   1
*Elset, elset=_PickedSet60, internal, instance=Stirrupid-1-lin-12-1, generate
  1,  16,   1
*Elset, elset=_PickedSet60, internal, instance=Rebars-1-lin-2-2, generate
  1,  40,   1
*Elset, elset=_PickedSet60, internal, instance=Stirrupid-1-lin-6-1, generate
  1,  16,   1
*Elset, elset=_PickedSet60, internal, instance=Stirrupid-1-lin-10-1, generate
  1,  16,   1
*Elset, elset=_PickedSet60, internal, instance=Rebars-1-lin-1-2, generate
  1,  40,   1
*Elset, elset=_PickedSet60, internal, instance=Stirrupid-1-lin-14-1, generate
  1,  16,   1
*Nset, nset=_PickedSet61, internal, instance=Concrete-beam-1, generate
    1,  1470,     1
*Elset, elset=_PickedSet61, internal, instance=Concrete-beam-1, generate
   1,  984,    1
*Nset, nset=_PickedSet70, internal, instance=Support-1-lin-3-1, generate
   1,  261,    4
*Elset, elset=_PickedSet70, internal, instance=Support-1-lin-3-1, generate
   1,  148,    3
*Nset, nset=_PickedSet71, internal
 1,
*Nset, nset=_PickedSet72, internal, instance=Support-1-lin-2-1, generate
   1,  261,    4
*Elset, elset=_PickedSet72, internal, instance=Support-1-lin-2-1, generate
   1,  148,    3
*Nset, nset=_PickedSet73, internal
 2,
*Nset, nset=_PickedSet74, internal, instance=Support-1, generate
   4,  264,    4
*Nset, nset=_PickedSet74, internal, instance=Support-1-lin-4-1, generate
   4,  264,    4
*Elset, elset=_PickedSet74, internal, instance=Support-1, generate
   3,  150,    3
*Elset, elset=_PickedSet74, internal, instance=Support-1-lin-4-1, generate
   3,  150,    3
*Elset, elset=_CP-1-Concrete-beam-1_S6, internal, instance=Concrete-beam-1
   1,   7,  13,  19,  25,  31,  37,  43,  49,  55,  61,  67,  73,  79,  85,  91
  97, 103, 109, 115, 121, 127, 133, 139, 145, 151, 157, 163, 169, 175, 181, 187
 193, 199, 205, 211, 217, 223, 229, 235, 601, 607, 613, 619, 625, 631, 637, 643
 889, 895, 901, 907, 913, 919, 925, 931, 937, 943, 949, 955, 961, 967, 973, 979
*Elset, elset=_CP-1-Concrete-beam-1_S4, internal, instance=Concrete-beam-1
 246, 252, 258, 264, 270, 276, 282, 288, 294, 300, 306, 312, 318, 324, 330, 336
 342, 348, 354, 360, 366, 372, 378, 384, 390, 396, 402, 408, 414, 420, 426, 432
 438, 444, 450, 456, 462, 468, 474, 480, 486, 492, 498, 504, 510, 516, 522, 528
 534, 540, 546, 552, 558, 564, 570, 576, 582, 588, 594, 600, 654, 660, 666, 672
 678, 684, 690, 696, 702, 708, 714, 720, 726, 732, 738, 744, 750, 756, 762, 768
 774, 780, 786, 792, 798, 804, 810, 816, 822, 828, 834, 840, 846, 852, 858, 864
 870, 876, 882, 888
*Surface, type=ELEMENT, name=CP-1-Concrete-beam-1
_CP-1-Concrete-beam-1_S6, S6
_CP-1-Concrete-beam-1_S4, S4
*Elset, elset=_CP-1-Support-1_S6, internal, instance=Support-1, generate
   1,  148,    3
*Surface, type=ELEMENT, name=CP-1-Support-1
_CP-1-Support-1_S6, S6
*Elset, elset=_CP-2-Concrete-beam-1_S6, internal, instance=Concrete-beam-1
 241, 247, 253, 259, 265, 271, 277, 283, 289, 295, 301, 307, 313, 319, 325, 331
 337, 343, 349, 355, 361, 367, 373, 379, 385, 391, 397, 403, 409, 415, 421, 427
 433, 439, 445, 451, 457, 463, 469, 475, 481, 487, 493, 499, 505, 511, 517, 523
 529, 535, 541, 547, 553, 559, 565, 571, 577, 583, 589, 595, 649, 655, 661, 667
 673, 679, 685, 691, 697, 703, 709, 715, 721, 727, 733, 739, 745, 751, 757, 763
 769, 775, 781, 787, 793, 799, 805, 811, 817, 823, 829, 835, 841, 847, 853, 859
 865, 871, 877, 883
*Elset, elset=_CP-2-Concrete-beam-1_S4, internal, instance=Concrete-beam-1
   6,  12,  18,  24,  30,  36,  42,  48,  54,  60,  66,  72,  78,  84,  90,  96
 102, 108, 114, 120, 126, 132, 138, 144, 150, 156, 162, 168, 174, 180, 186, 192
 198, 204, 210, 216, 222, 228, 234, 240, 606, 612, 618, 624, 630, 636, 642, 648
 894, 900, 906, 912, 918, 924, 930, 936, 942, 948, 954, 960, 966, 972, 978, 984
*Surface, type=ELEMENT, name=CP-2-Concrete-beam-1
_CP-2-Concrete-beam-1_S6, S6
_CP-2-Concrete-beam-1_S4, S4
*Elset, elset=_CP-2-Support-1-lin-2-1_S4, internal, instance=Support-1-lin-2-1, generate
   3,  150,    3
*Surface, type=ELEMENT, name=CP-2-Support-1-lin-2-1
_CP-2-Support-1-lin-2-1_S4, S4
*Elset, elset=_CP-3-Concrete-beam-1_S6, internal, instance=Concrete-beam-1
 241, 247, 253, 259, 265, 271, 277, 283, 289, 295, 301, 307, 313, 319, 325, 331
 337, 343, 349, 355, 361, 367, 373, 379, 385, 391, 397, 403, 409, 415, 421, 427
 433, 439, 445, 451, 457, 463, 469, 475, 481, 487, 493, 499, 505, 511, 517, 523
 529, 535, 541, 547, 553, 559, 565, 571, 577, 583, 589, 595, 649, 655, 661, 667
 673, 679, 685, 691, 697, 703, 709, 715, 721, 727, 733, 739, 745, 751, 757, 763
 769, 775, 781, 787, 793, 799, 805, 811, 817, 823, 829, 835, 841, 847, 853, 859
 865, 871, 877, 883
*Elset, elset=_CP-3-Concrete-beam-1_S4, internal, instance=Concrete-beam-1
   6,  12,  18,  24,  30,  36,  42,  48,  54,  60,  66,  72,  78,  84,  90,  96
 102, 108, 114, 120, 126, 132, 138, 144, 150, 156, 162, 168, 174, 180, 186, 192
 198, 204, 210, 216, 222, 228, 234, 240, 606, 612, 618, 624, 630, 636, 642, 648
 894, 900, 906, 912, 918, 924, 930, 936, 942, 948, 954, 960, 966, 972, 978, 984
*Surface, type=ELEMENT, name=CP-3-Concrete-beam-1
_CP-3-Concrete-beam-1_S6, S6
_CP-3-Concrete-beam-1_S4, S4
*Elset, elset=_CP-3-Support-1-lin-3-1_S4, internal, instance=Support-1-lin-3-1, generate
   3,  150,    3
*Surface, type=ELEMENT, name=CP-3-Support-1-lin-3-1
_CP-3-Support-1-lin-3-1_S4, S4
*Elset, elset=_CP-4-Concrete-beam-1_S6, internal, instance=Concrete-beam-1
   1,   7,  13,  19,  25,  31,  37,  43,  49,  55,  61,  67,  73,  79,  85,  91
  97, 103, 109, 115, 121, 127, 133, 139, 145, 151, 157, 163, 169, 175, 181, 187
 193, 199, 205, 211, 217, 223, 229, 235, 601, 607, 613, 619, 625, 631, 637, 643
 889, 895, 901, 907, 913, 919, 925, 931, 937, 943, 949, 955, 961, 967, 973, 979
*Elset, elset=_CP-4-Concrete-beam-1_S4, internal, instance=Concrete-beam-1
 246, 252, 258, 264, 270, 276, 282, 288, 294, 300, 306, 312, 318, 324, 330, 336
 342, 348, 354, 360, 366, 372, 378, 384, 390, 396, 402, 408, 414, 420, 426, 432
 438, 444, 450, 456, 462, 468, 474, 480, 486, 492, 498, 504, 510, 516, 522, 528
 534, 540, 546, 552, 558, 564, 570, 576, 582, 588, 594, 600, 654, 660, 666, 672
 678, 684, 690, 696, 702, 708, 714, 720, 726, 732, 738, 744, 750, 756, 762, 768
 774, 780, 786, 792, 798, 804, 810, 816, 822, 828, 834, 840, 846, 852, 858, 864
 870, 876, 882, 888
*Surface, type=ELEMENT, name=CP-4-Concrete-beam-1
_CP-4-Concrete-beam-1_S6, S6
_CP-4-Concrete-beam-1_S4, S4
*Elset, elset=_CP-4-Support-1-lin-4-1_S6, internal, instance=Support-1-lin-4-1, generate
   1,  148,    3
*Surface, type=ELEMENT, name=CP-4-Support-1-lin-4-1
_CP-4-Support-1-lin-4-1_S6, S6
*Surface, type=NODE, name=_PickedSet70_CNS_, internal
_PickedSet70, 1.
*Surface, type=NODE, name=_PickedSet72_CNS_, internal
_PickedSet72, 1.
** Constraint: CP-1-Concrete-beam-1-Support-1
*Tie, name=CP-1-Concrete-beam-1-Support-1, adjust=yes, type=SURFACE TO SURFACE
CP-1-Support-1, CP-1-Concrete-beam-1
** Constraint: CP-2-Concrete-beam-1-Support-1-lin-2-1
*Tie, name=CP-2-Concrete-beam-1-Support-1-lin-2-1, adjust=yes, type=SURFACE TO SURFACE
CP-2-Support-1-lin-2-1, CP-2-Concrete-beam-1
** Constraint: CP-3-Concrete-beam-1-Support-1-lin-3-1
*Tie, name=CP-3-Concrete-beam-1-Support-1-lin-3-1, adjust=yes, type=SURFACE TO SURFACE
CP-3-Support-1-lin-3-1, CP-3-Concrete-beam-1
** Constraint: CP-4-Concrete-beam-1-Support-1-lin-4-1
*Tie, name=CP-4-Concrete-beam-1-Support-1-lin-4-1, adjust=yes, type=SURFACE TO SURFACE
CP-4-Support-1-lin-4-1, CP-4-Concrete-beam-1
** Constraint: Constraint-6
*Coupling, constraint name=Constraint-6, ref node=_PickedSet71, surface=_PickedSet70_CNS_
*Kinematic
** Constraint: Constraint-7
*Coupling, constraint name=Constraint-7, ref node=_PickedSet73, surface=_PickedSet72_CNS_
*Kinematic
** Constraint: EM
*Embedded Element, host elset=_PickedSet61
_PickedSet60
*End Assembly
*Amplitude, name=Amp-1
             0.,              0.,              1.,             0.2,              2.,             0.4,              3.,             0.6
             4.,             0.8,              5.,              1.
** 
** MATERIALS
** 
*Material, name=Concrete_CDP
*Density
 2.4e-09,
*Elastic
23900., 0.2
*Concrete Damaged Plasticity
30.,    0.1,   1.16,  0.667, 0.0005
*Concrete Compression Hardening
 14.4337,          0.
   16.52, 0.000184283
 18.0259,  0.00028101
 19.0446, 0.000393957
 19.6725,  0.00051991
 19.9973, 0.000655941
 20.0935, 0.000799574
 19.6104,  0.00110929
 18.5218,   0.0014391
 17.2138,  0.00177614
 15.8904,  0.00211361
 14.6451,  0.00244839
 13.5124,  0.00277933
 12.4988,  0.00310621
 11.5979,  0.00342925
 10.7987,  0.00374881
 10.0891,  0.00406531
*Concrete Tension Stiffening
  2.25705,          0.
  2.07865,    5.18e-05
  1.82164,    8.05e-05
   1.5932, 0.000108287
  1.40714, 0.000134661
  1.25785,  0.00015981
  1.13732, 0.000183999
  1.03875, 0.000207456
 0.956987, 0.000230352
 0.888226, 0.000252814
 0.829663, 0.000274936
*Concrete Compression Damage
       0.,          0.
 0.134404, 0.000184283
 0.174561,  0.00028101
 0.214466, 0.000393957
 0.253159,  0.00051991
 0.290055, 0.000655941
 0.324845, 0.000799574
  0.39108,  0.00110929
 0.452081,   0.0014391
 0.505861,  0.00177614
 0.552354,  0.00211361
 0.592277,  0.00244839
 0.626559,  0.00277933
 0.656104,  0.00310621
 0.681702,  0.00342925
 0.704015,  0.00374881
 0.723586,  0.00406531
 0.740858,  0.00437912
 0.756191,  0.00469059
 0.769878,  0.00500002
** ... 22 like lines cut
*Concrete Tension Damage
       0.,          0.
 0.243426,    5.18e-05
 0.344276,    8.05e-05
  0.42637, 0.000108287
 0.491735, 0.000134661
 0.544109,  0.00015981
 0.586674, 0.000183999
 0.621806, 0.000207456
 0.651234, 0.000230352
 0.676219, 0.000252814
 0.697684, 0.000274936
 0.716321, 0.000296787
 0.732656,  0.00031842
 0.747091, 0.000339874
 0.759943, 0.000361181
 0.771461, 0.000382364
 0.795639, 0.000434899
  0.81487, 0.000486986
 0.843598,  0.00059029
 0.854634, 0.000641648
** ... 20 like lines cut
*Material, name=Elastic
*Density
 7.85e-09,
*Elastic
200000., 0.3
*Material, name=Q235
*Density
 7.85e-09,
*Elastic
199000., 0.3
*Plastic
   235.,       0.
   260., 0.001262
 339.39,  0.03857
   410.,     0.11
 390.14,     0.17
** 
** BOUNDARY CONDITIONS
** 
** Name: BC-1 Type: //
*Boundary
_PickedSet74, ENCASTRE
** ----------------------------------------------------------------
** 
** STEP: Dynamic
** 
*Step, name=Dynamic, nlgeom=YES
*Dynamic, Explicit
, 5.
*Bulk Viscosity
0.06, 1.2
** 
** BOUNDARY CONDITIONS
** 
** Name: Dis Type: /
*Boundary, amplitude=Amp-1
D/S, 1, 1
D/S, 2, 2, -100.
D/S, 3, 3
D/S, 4, 4
D/S, 5, 5
D/S, 6, 6
** Name: Dis2 Type: /
*Boundary, amplitude=Amp-1
d/s2, 1, 1
d/s2, 2, 2, -100.
d/s2, 3, 3
d/s2, 4, 4
d/s2, 5, 5
d/s2, 6, 6
** 
** OUTPUT REQUESTS
** 
*Restart, write, number interval=1, time marks=NO
** 
** FIELD OUTPUT: F-Output-1
** 
*Output, field
*Node Output
A, RF, U, V
*Element Output, directions=YES
DAMAGEC, DAMAGET, EVF, LE, PE, PEEQ, PEEQVAVG, PEVAVG, S, SVAVG
*Contact Output
CSTRESS, 
** 
** HISTORY OUTPUT: H-Output-1
** 
*Output, history, time interval=0.01
*Node Output, nset=D/S
RF2, U2
** 
** HISTORY OUTPUT: H-Output-2
** 
*Node Output, nset=d/s2
RF2, U2
*End Step
